# B-spline parameters 
# order     R0    Rmax       θ
      4    140    220     0.63

# real knot sequences
 0  0.1     3   -1
 0  2.0   140
 4   20   138

# complex knot sequences
 140    -1
 220
  81

# initial / final atomic state
# ni minli maxli maxnf maxlf
  5     0    0     5    0

# angular momenta
# L  ℓ
  0  3

# initial energies in Rydbergs
0.0001   -1
0.0017
    17

# magnetic field
0
